/*--------------------------------*- C++ -*----------------------------------*\
| =========                 |                                                 |
| \\      /  F ield         | OpenFOAM: The Open Source CFD Toolbox           |
|  \\    /   O peration     | Version:  5.x                                   |
|   \\  /    A nd           | Web:      www.OpenFOAM.org                      |
|    \\/     M anipulation  |                                                 |
\*---------------------------------------------------------------------------*/
FoamFile
{
    version     2.0;
    format      ascii;
    class       featureEdgeMesh;
    note        "written 2020-10-02T01:53:51";
    location    "";
    object      CAD.eMesh;
}
// * * * * * * * * * * * * * * * * * * * * * * * * * * * * * * * * * * * * * //


// points:

272
(
(-0.0381 -0.0127 0.381)
(-0.0381 -0.0125071 0.378795)
(-0.0381 -0.0125071 0.383205)
(-0.0381 -0.0119341 0.376657)
(-0.0381 -0.0119341 0.385343)
(-0.0381 -0.0109985 0.37465)
(-0.0381 -0.0109985 0.38735)
(-0.0381 -0.00972876 0.372836)
(-0.0381 -0.00972876 0.389164)
(-0.0381 -0.00816341 0.371272)
(-0.0381 -0.00816341 0.390728)
(-0.0381 -0.00635 0.370002)
(-0.0381 -0.00635 0.391998)
(-0.0381 -0.00434365 0.369067)
(-0.0381 -0.00434365 0.392933)
(-0.0381 -0.00220533 0.368493)
(-0.0381 -0.00220533 0.393507)
(-0.0381 0 0.3937)
(-0.0381 0 0.3937)
(-0.0381 0 0.3937)
(-0.0381 0 0.3683)
(-0.0381 0 0.3683)
(-0.0381 0.00220533 0.368493)
(-0.0381 0.00220533 0.393507)
(-0.0381 0.00434365 0.369067)
(-0.0381 0.00434365 0.392933)
(-0.0381 0.00635 0.370002)
(-0.0381 0.00635 0.391998)
(-0.0381 0.00816341 0.371272)
(-0.0381 0.00816341 0.390728)
(-0.0381 0.00972876 0.372836)
(-0.0381 0.00972876 0.389164)
(-0.0381 0.0109985 0.37465)
(-0.0381 0.0109985 0.38735)
(-0.0381 0.0119341 0.376657)
(-0.0381 0.0119341 0.385343)
(-0.0381 0.0125071 0.378795)
(-0.0381 0.0125071 0.383205)
(-0.0381 0.0127 0.381)
(-0.0254 0 0.3937)
(-0.0254 0 0.3937)
(-0.0254 0 0.3937)
(-0.0254 0 0)
(-0.0254 0 0.4445)
(-0.0254 0 0)
(-0.0254 0 0.4445)
(-0.0253949 0.000510388 0.36831)
(-0.0253844 -0.000890422 0.39367)
(-0.0253784 -0.00104767 0.368343)
(-0.0253435 0.00169253 0.393586)
(-0.0253378 -0.00177576 0.393576)
(-0.0253164 0.00205961 0.368468)
(-0.0253164 0.00205961 0.368468)
(-0.0252678 -0.00258785 0.368567)
(-0.0251849 -0.00329893 0.393263)
(-0.0251779 0.00335145 0.39325)
(-0.0251472 0.00357454 0.368813)
(-0.0250693 -0.00408526 0.368976)
(-0.0250141 -0.00441066 0)
(-0.0250141 -0.00441066 0.4445)
(-0.0250141 0.00441066 0)
(-0.0250141 0.00441066 0.4445)
(-0.0249485 -0.00476791 0.39277)
(-0.024914 0.00494513 0.392697)
(-0.0248968 0.00503093 0.369339)
(-0.0247938 -0.00551597 0.36956)
(-0.0246418 -0.00615975 0.392107)
(-0.0245788 0.00640636 0.370035)
(-0.0245689 0.00644441 0.391942)
(-0.0244563 -0.00685919 0.370312)
(-0.0242811 -0.00745584 0.391282)
(-0.0242102 0.00768297 0.370888)
(-0.0241643 0.00782594 0.391003)
(-0.0240746 -0.00809788 0.371216)
(-0.0238854 -0.00863981 0.390309)
(-0.0238682 -0.00868731 0)
(-0.0238682 -0.00868731 0.4445)
(-0.0238682 0.00868731 0)
(-0.0238682 0.00868731 0.4445)
(-0.0238104 0.00884456 0.371886)
(-0.0237445 0.00902002 0.389941)
(-0.023669 -0.00921621 0.372262)
(-0.0234762 -0.00969683 0.389202)
(-0.0234011 0.00987676 0.373017)
(-0.0233357 0.0100302 0.38879)
(-0.0232617 -0.0102008 0.373436)
(-0.0230761 -0.0106139 0.387975)
(-0.0230052 0.0107666 0.374264)
(-0.0229443 0.0108958 0.387525)
(-0.0228761 -0.0110384 0.374719)
(-0.022709 -0.0113781 0.386641)
(-0.0226468 0.0115013 0.375615)
(-0.0225942 0.0116045 0.386161)
(-0.022536 -0.011717 0.3761)
(-0.0223983 -0.0119782 0.385221)
(-0.0223489 0.01207 0.37705)
(-0.0223081 0.0121454 0.384711)
(-0.0222641 -0.0122258 0.377561)
(-0.0221657 -0.0124034 0.383728)
(-0.0221329 0.0124617 0.378551)
(-0.022107 0.0125077 0.383202)
(-0.0220806 -0.0125542 0.379082)
(-0.0220293 -0.012644 0.382191)
(-0.0220157 0.0126677 0.380096)
(-0.0220068 0.0126831 0.381655)
(-0.0220001 -0.0126947 0.380632)
(-0.021997 -0.0127 0)
(-0.021997 -0.0127 0.4445)
(-0.021997 0.0127 0)
(-0.021997 0.0127 0.4445)
(-0.0194575 -0.0163268 0)
(-0.0194575 -0.0163268 0.4445)
(-0.0194575 0.0163268 0)
(-0.0194575 0.0163268 0.4445)
(-0.0163268 -0.0194575 0)
(-0.0163268 -0.0194575 0.4445)
(-0.0163268 0.0194575 0)
(-0.0163268 0.0194575 0.4445)
(-0.0127 -0.021997 0)
(-0.0127 -0.021997 0.4445)
(-0.0127 0.021997 0)
(-0.0127 0.021997 0.4445)
(-0.00868731 -0.0238682 0)
(-0.00868731 -0.0238682 0.4445)
(-0.00868731 0.0238682 0)
(-0.00868731 0.0238682 0.4445)
(-0.00441066 -0.0250141 0)
(-0.00441066 -0.0250141 0.4445)
(-0.00441066 0.0250141 0)
(-0.00441066 0.0250141 0.4445)
(0 -0.0254 0)
(0 -0.0254 0.4445)
(0 -0.0254 0)
(0 -0.0254 0.4445)
(0 0.0254 0)
(0 0.0254 0.4445)
(0 0.0254 0)
(0 0.0254 0.4445)
(0.00441066 -0.0250141 0)
(0.00441066 -0.0250141 0.4445)
(0.00441066 0.0250141 0)
(0.00441066 0.0250141 0.4445)
(0.00868731 -0.0238682 0)
(0.00868731 -0.0238682 0.4445)
(0.00868731 0.0238682 0)
(0.00868731 0.0238682 0.4445)
(0.0127 -0.021997 0)
(0.0127 -0.021997 0.4445)
(0.0127 0.021997 0)
(0.0127 0.021997 0.4445)
(0.0163268 -0.0194575 0)
(0.0163268 -0.0194575 0.4445)
(0.0163268 0.0194575 0)
(0.0163268 0.0194575 0.4445)
(0.0194575 -0.0163268 0)
(0.0194575 -0.0163268 0.4445)
(0.0194575 0.0163268 0)
(0.0194575 0.0163268 0.4445)
(0.021997 -0.0127 0)
(0.021997 -0.0127 0.4445)
(0.021997 0.0127 0)
(0.021997 0.0127 0.4445)
(0.0220068 -0.0126831 0.0641543)
(0.0220068 0.0126831 0.0628457)
(0.0220157 -0.0126677 0.0625947)
(0.0220157 0.0126677 0.0644053)
(0.022107 -0.0125077 0.0657019)
(0.022107 0.0125077 0.0612981)
(0.0221329 -0.0124617 0.0610517)
(0.0221329 0.0124617 0.0659483)
(0.0223081 -0.0121454 0.0672122)
(0.0223081 0.0121454 0.0597878)
(0.0223489 -0.01207 0.0595498)
(0.0223489 0.01207 0.0674502)
(0.0225942 -0.0116045 0.06866)
(0.0225942 0.0116045 0.05834)
(0.0226468 -0.0115013 0.0581139)
(0.0226468 0.0115013 0.0688861)
(0.0229443 -0.0108958 0.0700248)
(0.0229443 0.0108958 0.0569752)
(0.0230052 -0.0107666 0.0567642)
(0.0230052 0.0107666 0.0702358)
(0.0233357 -0.0100302 0.0712902)
(0.0233357 0.0100302 0.0557098)
(0.0234011 -0.00987674 0.0555163)
(0.0234011 0.00987676 0.0714837)
(0.0237445 -0.00902002 0.0724403)
(0.0237445 0.00902002 0.0545597)
(0.0238104 -0.00884453 0.054386)
(0.0238104 0.00884456 0.072614)
(0.0238682 -0.00868731 0)
(0.0238682 -0.00868731 0.4445)
(0.0238682 0.00868731 0)
(0.0238682 0.00868731 0.4445)
(0.0241643 -0.00782594 0.0735023)
(0.0241643 0.00782594 0.0534977)
(0.0242102 -0.00768297 0.0533875)
(0.0242102 0.00768297 0.0736125)
(0.0245689 0.00644441 0.0525564)
(0.0245689 -0.00644441 0.0744436)
(0.0245788 -0.00640636 0.0525343)
(0.0245788 0.00640636 0.0744657)
(0.0248968 -0.0050309 0.0518389)
(0.0248968 0.00503093 0.0751611)
(0.024914 -0.00494513 0.0751977)
(0.024914 0.00494513 0.0518023)
(0.0250141 -0.00441066 0)
(0.0250141 -0.00441066 0.4445)
(0.0250141 0.00441066 0)
(0.0250141 0.00441066 0.4445)
(0.0251472 -0.00357454 0.0513133)
(0.0251472 0.00357454 0.0756867)
(0.0251779 -0.00335145 0.0757499)
(0.0251779 0.00335145 0.0512501)
(0.0253164 -0.00205958 0.0509681)
(0.0253164 0.00205961 0.0760319)
(0.0253164 0.00205961 0.0760319)
(0.0253435 -0.00169253 0.0760867)
(0.0253435 0.00169253 0.0509133)
(0.025379 -0.0010337 0.0508422)
(0.025379 0.00103373 0.0761578)
(0.0254 0 0)
(0.0254 0 0.0508)
(0.0254 0 0.0762)
(0.0254 0 0.4445)
(0.0254 0 0)
(0.0254 0 0.4445)
(0.0254 0 0.0508)
(0.0254 0 0)
(0.0254 0 0.0508)
(0.0254 0 0.0762)
(0.0254 0 0.4445)
(0.0254 0 0.0762)
(0.0381 -0.0127 0.0635)
(0.0381 -0.0125071 0.0612948)
(0.0381 -0.0125071 0.0657052)
(0.0381 -0.0119341 0.0591563)
(0.0381 -0.0119341 0.0678437)
(0.0381 -0.0109985 0.05715)
(0.0381 -0.0109985 0.06985)
(0.0381 -0.00972876 0.0553367)
(0.0381 -0.00972876 0.0716633)
(0.0381 -0.00816341 0.0537713)
(0.0381 -0.00816341 0.0732287)
(0.0381 -0.00635 0.0525015)
(0.0381 -0.00635 0.0744985)
(0.0381 -0.00434365 0.0515658)
(0.0381 -0.00434365 0.0754342)
(0.0381 -0.00220533 0.050993)
(0.0381 -0.00220533 0.076007)
(0.0381 0 0.0508)
(0.0381 0 0.0508)
(0.0381 0 0.0508)
(0.0381 0 0.0762)
(0.0381 0 0.0762)
(0.0381 0.00220533 0.050993)
(0.0381 0.00220533 0.076007)
(0.0381 0.00434365 0.0515658)
(0.0381 0.00434365 0.0754342)
(0.0381 0.00635 0.0525015)
(0.0381 0.00635 0.0744985)
(0.0381 0.00816341 0.0537713)
(0.0381 0.00816341 0.0732287)
(0.0381 0.00972876 0.0553367)
(0.0381 0.00972876 0.0716633)
(0.0381 0.0109985 0.05715)
(0.0381 0.0109985 0.06985)
(0.0381 0.0119341 0.0591563)
(0.0381 0.0119341 0.0678437)
(0.0381 0.0125071 0.0612948)
(0.0381 0.0125071 0.0657052)
(0.0381 0.0127 0.0635)
)


// edges:
0()
// * * * * * * * * * * * * * * * * * * * * * * * * * * * * * * * * * * * * * //
