/*--------------------------------*- C++ -*----------------------------------*\
| =========                 |                                                 |
| \\      /  F ield         | OpenFOAM: The Open Source CFD Toolbox           |
|  \\    /   O peration     | Version:  5.x                                   |
|   \\  /    A nd           | Web:      www.OpenFOAM.org                      |
|    \\/     M anipulation  |                                                 |
\*---------------------------------------------------------------------------*/
FoamFile
{
    version     2.0;
    format      ascii;
    class       polyBoundaryMesh;
    location    "constant/polyMesh";
    object      boundary;
}
// * * * * * * * * * * * * * * * * * * * * * * * * * * * * * * * * * * * * * //

5
(
    CAD_patch0
    {
        type            wall;
        inGroups        1(wall);
        nFaces          4232;
        startFace       29458;
    }
    fbGasin
    {
        type            patch;
        nFaces          96;
        startFace       33690;
    }
    CAD_patch2
    {
        type            wall;
        inGroups        1(wall);
        nFaces          96;
        startFace       33786;
    }
    fbBioin
    {
        type            wall;
        inGroups        1(wall);
        nFaces          26;
        startFace       33882;
    }
    fbOut
    {
        type            patch;
        nFaces          24;
        startFace       33908;
    }
)

// ************************************************************************* //
